! *** EVALUATION SOFTWARE GENERATES COMPRESSED IDF - TO OBTAIN READABLE IDF PLEASE PURCHASE A LICENCE ***
! File generated by DesignBuilder - 4.5.0.148 11/27/2019 - 05:27:37 È.Ù
! Source file: C:\Users\M-parsian\Desktop\6-0.8cop.dsb

Version, 8.3.0.001;

RunPeriod,
casestudy-thesis,
1,1,
12,31,
Saturday,
No,
Yes,
Yes,
Yes,
Yes,
1;


Site:Location,casestudy-thesis,
36.32,
50.01,
3.5,
1365;

Site:GroundTemperature:BuildingSurface,
17.87,
17.61,
17.63,
19.22,
19.59,
19.69,
21.29,
21.59,
21.59,
21.52,
19.88,
19.51;

Site:GroundTemperature:Deep,
14,
14,
14,
14,
14,
14,
14,
14,
14,
14,
14,
14;

Site:GroundTemperature:Shallow,
14,
14,
14,
14,
14,
14,
14,
14,
14,
14,
14,
14;

Site:GroundTemperature:FCfactorMethod,
4.02,
3.00,
4.81,
7.64,
15.05,
20.77,
24.63,
25.81,
23.81,
19.37,
13.43,
7.92;

Site:GroundReflectance, 
0.2,
0.2,
0.2,
0.2,
0.2,
0.2,
0.2,
0.2,
0.2,
0.2,
0.2,
0.2;

Site:GroundReflectance:SnowModifier,
2.0,
2.0;

ProgramControl,
1;

SimulationControl,
Yes,
Yes,
No,
No,
Yes;


SizingPeriod:DesignDay, Summer Design Day in casestudy-thesis Jul,
7,
15,
SummerDesignDay,
36.7,
15.9,
,
,
WetBulb,
17.2,
,
,
,
,
85966.1,
0,
0,
No,
No,
No,
,
,
,
,
,
0.98;

SizingPeriod:DesignDay, Winter Design Day in casestudy-thesis,
1,
15,
WinterDesignDay,
-11,
0,
,
,
WetBulb,
-11,
,
,
,
,
85966.1,
10.3,
0,
No,
No,
No,
,
,
,
,
,
0;

Timestep, 4;

ConvergenceLimits,
1,
25;

ZoneAirContaminantBalance, 
No,
,
Yes,
Off 24/7;

ScheduleTypeLimits, Any Number;                         ! Not limited
ScheduleTypeLimits, Fraction,     0.0, 1.0, CONTINUOUS;
ScheduleTypeLimits, Temperature,  -60, 200, CONTINUOUS;
ScheduleTypeLimits, Control Type,   0,   4, DISCRETE;
ScheduleTypeLimits, On/Off,         0,   1, DISCRETE;

Schedule:Compact, 
      On,                                         ! Name
      Any Number,                                 ! Type
      Through: 12/31,                             ! Type
      For: AllDays,                               ! All days in year
      Until: 24:00,                               ! All hours in day
       1;     

Schedule:Compact, 
      Off,                                        ! Name
      Any Number,                                 ! Type
      Through: 12/31,                             ! Type
      For: AllDays,                               ! All days in year
      Until: 24:00,                               ! All hours in day
       0;     

Schedule:Compact, 
      Work efficiency,                            ! Name
      Any Number,                                 ! Type
      Through: 12/31,                             ! Type
      For: AllDays,                               ! All days in year
      Until: 24:00,                               ! All hours in day
       0;     
Schedule:Compact,
      OpaqueShade,                                ! Name
      Any Number,                                 ! Type
      Through: 12/31,                             ! Type
      For: AllDays,                               ! All days in year
      Until: 24:00,                               ! All hours in day
       0;     
       
Schedule:Compact,
    Zone Comfort Control Type Sched,              !- Name
    Control Type,                                 !- Schedule Type Limits Name
    Through: 12/31,                               !- Field 1
    For: AllDays,                                 !- Field 2
    Until: 24:00,                                 !- Field 3
    4;                                            !- Field 4

Schedule:Compact,
    Design Days Only,                             !- Name
    Any Number,                                   !- Schedule Type Limits Name
    Through: 12/31,                               !- Field 1
    For: SummerDesignDay WinterDesignDay,         !- Field 2
    Until: 24:00,                                 !- Field 3
    1,                                            !- Field 4
    For: AllOtherDays,                            !- Field 2
    Until: 24:00,                                 !- Field 3
    0;
      
! off heating day
Schedule:Day:Hourly,  0, Any Number,
   0,0,0,0,0,0,0,0,0,0,0,0,0,0,0,0,0,0,0,0,0,0,0,0;

! off cooling day
Schedule:Day:Hourly,  50, Any Number,
   50,50,50,50,50,50,50,50,50,50,50,50,50,50,50,50,50,50,50,50,50,50,50,50;

! used in seasonal schedules
Schedule:Day:Hourly,  Off, Fraction,
   0,0,0,0,0,0,0,0,0,0,0,0,0,0,0,0,0,0,0,0,0,0,0,0;

Schedule:Week:Daily, Off,
   Off,Off,Off,Off,
   Off,Off,Off,Off,
   Off,Off,Off,Off;

! -------------------- Control type schedules (for heating & cooling) ----------------------

Schedule:Day:Hourly, Summer Control Type Day Sch, Control Type,
   4,4,4,4,4,4,4,4,4,4,4,4,4,4,4,4,4,4,4,4,4,4,4,4;

Schedule:Day:Hourly, Winter Control Type Day Sch, Control Type,
   4,4,4,4,4,4,4,4,4,4,4,4,4,4,4,4,4,4,4,4,4,4,4,4;

Schedule:Day:Hourly, Summer Control Type Day Sch - cool, Control Type,
   2,2,2,2,2,2,2,2,2,2,2,2,2,2,2,2,2,2,2,2,2,2,2,2;

Schedule:Day:Hourly, Winter Control Type Day Sch - heat, Control Type,
   1,1,1,1,1,1,1,1,1,1,1,1,1,1,1,1,1,1,1,1,1,1,1,1;

Schedule:Week:Daily, Summer Control Type Week Sch,
   Summer Control Type Day Sch,Summer Control Type Day Sch,Summer Control Type Day Sch,
   Summer Control Type Day Sch,Summer Control Type Day Sch,Summer Control Type Day Sch,
   Summer Control Type Day Sch,Summer Control Type Day Sch,Summer Control Type Day Sch,
   Summer Control Type Day Sch,Summer Control Type Day Sch,Summer Control Type Day Sch;

Schedule:Week:Daily, Winter Control Type Week Sch,
   Winter Control Type Day Sch,Winter Control Type Day Sch,Winter Control Type Day Sch,
   Winter Control Type Day Sch,Winter Control Type Day Sch,Winter Control Type Day Sch,
   Winter Control Type Day Sch,Winter Control Type Day Sch,Winter Control Type Day Sch,
   Winter Control Type Day Sch,Winter Control Type Day Sch,Winter Control Type Day Sch;

Schedule:Week:Daily, Summer Control Type Week Sch - cool,
   Summer Control Type Day Sch - cool,Summer Control Type Day Sch - cool,Summer Control Type Day Sch - cool,
   Summer Control Type Day Sch - cool,Summer Control Type Day Sch - cool,Summer Control Type Day Sch - cool,
   Summer Control Type Day Sch - cool,Summer Control Type Day Sch - cool,Summer Control Type Day Sch - cool,
   Summer Control Type Day Sch - cool,Summer Control Type Day Sch - cool,Summer Control Type Day Sch - cool;

Schedule:Week:Daily, Winter Control Type Week Sch - heat,
   Winter Control Type Day Sch - heat,Winter Control Type Day Sch - heat,Winter Control Type Day Sch - heat,
   Winter Control Type Day Sch - heat,Winter Control Type Day Sch - heat,Winter Control Type Day Sch - heat,
   Winter Control Type Day Sch - heat,Winter Control Type Day Sch - heat,Winter Control Type Day Sch - heat,
   Winter Control Type Day Sch - heat,Winter Control Type Day Sch - heat,Winter Control Type Day Sch - heat;

!Material:InfraredTransparent,
!IRTMaterial; !- Name

!Construction,
!IRTSurface,  !- Name
!IRTMaterial; !- Outside Layer





Material:NoMass, 
LinearBridgingLayer,                  ! Material Name
Rough,                                ! Roughness
0.6267 ,                              ! Resistance {M**2K/W} will give Total Resistance 1
0.0100000 ,                           ! Thermal Absorptance
0.0100000 ,                           ! Solar Absorptance
0.0100000 ;                           ! Visible Absorptance

Construction,
LinearBridgingConstruction,           !- Name
LinearBridgingLayer;                  !- Layer

Schedule:Compact,
TypOperativeTempControlSch,
Temperature,
Through: 31 Dec,
For: SummerDesignDay WinterDesignDay,
Until: 24:00, 0.0,
For: AllOtherDays,
Until: 24:00, 0.5;

Schedule:Compact, AirVelocitySchedule,
Any Number,
Through: 12/31,
For: AllDays,
Until: 24:00,
.137;
Material:InfraredTransparent,
IRTMaterial; !- Name

Construction,
IRTSurface,  !- Name
IRTMaterial; !- Outside Layer


Schedule:Day:Interval, 11 , Any number, No, 
24:00,  0;

Schedule:Day:Interval, 12 , Any number, No, 
24:00,  1;

Schedule:Day:List, 10000 , Any number, No, 
10,
0,
0,
0,
0,
0,
0,
0,
0,
0,
0,
0,
0,
0,
0,
0,
0,
0,
0,
0,
0,
0,
0,
0,
0,
0,
0,
0,
0,
0,
0,
0,
0,
0,
0,
0,
0,
0,
0,
0,
0,
0,
0,
0,
0,
0,
0,
0,
0,
0,
0,
0,
0,
0,
0,
0,
0,
0,
0,
0,
0,
0,
0,
0,
0,
0,
0,
0,
0,
1,
1,
1,
0,
0,
0,
0,
0,
0,
0,
0,
0,
0,
0,
0,
0,
0,
0,
0,
0,
0,
0,
0,
0,
0,
0,
0,
0,
0,
0,
0,
0,
0,
0,
0,
0,
0,
0,
0,
0,
0,
0,
0,
0,
1,
0,
1,
1,
0,
0,
0,
0,
0,
0,
0,
0,
0,
0,
0,
0,
0,
0,
0,
0,
0,
0,
0,
0,
0,
0,
0,
0,
0,
0,
0,
0;

Schedule:Day:List, 10001 , Any number, No, 
30,
0,
0,
0,
0,
0,
0,
0,
0,
0,
0,
0,
0,
0,
0,
0,
0,
0,
0,
0,
0,
0,
0,
1,
0,
0,
0,
0,
0,
0,
0,
0,
1,
1,
0,
0,
0,
0,
0,
0,
0,
0,
0,
0,
0,
0,
0,
0,
0;

Schedule:Day:List, 10002 , Any number, No, 
60,
.25,
.25,
.25,
.25,
.25,
.25,
.25,
0,
0,
0,
0,
0,
0,
0,
0,
0,
0,
0,
0,
0,
.25,
.25,
.25,
.25;

Schedule:Day:List, 10003 , Any number, No, 
60,
.5,
.5,
.5,
.5,
.5,
.5,
.5,
.5,
.5,
.5,
0,
0,
0,
1,
0,
0,
0,
0,
1,
0,
0,
.5,
.5,
.5;

Schedule:Day:List, 10004 , Any number, No, 
30,
0,
0,
0,
0,
0,
0,
0,
0,
0,
0,
0,
0,
0,
.5,
.5,
.5,
.5,
0,
0,
0,
0,
0,
0,
.25,
.25,
.25,
.25,
0,
0,
0,
0,
0,
0,
0,
0,
0,
0,
.25,
.25,
.45,
0,
0,
0,
0,
0,
0,
0,
0;

Schedule:Day:List, 10005 , Any number, No, 
60,
.35,
.35,
.35,
.35,
.35,
.35,
.35,
.15,
.15,
.15,
.25,
.15,
.15,
.15,
.15,
.15,
.15,
.15,
.35,
.35,
.35,
.35,
.35,
.35;

Schedule:Day:List, 10006 , Any number, No, 
60,
.25,
.25,
.25,
.25,
.25,
.25,
.25,
.25,
.25,
.25,
.85,
.85,
.85,
.85,
.85,
.85,
.85,
.3,
.3,
.3,
.3,
.3,
.3,
.3;

Schedule:Day:List, 10008 , Any number, No, 
10,
0,
0,
0,
0,
0,
0,
0,
0,
0,
0,
0,
0,
0,
0,
0,
0,
0,
0,
0,
0,
0,
0,
0,
0,
0,
0,
0,
0,
0,
0,
0,
0,
0,
0,
1,
0,
0,
0,
0,
0,
0,
0,
0,
0,
0,
0,
0,
0,
0,
0,
0,
0,
0,
0,
0,
1,
0,
1,
0,
0,
0,
0,
0,
0,
0,
0,
0,
0,
0,
0,
0,
0,
0,
1,
1,
0,
0,
0,
0,
0,
0,
0,
1,
0,
1,
0,
0,
0,
0,
0,
0,
1,
0,
1,
0,
0,
0,
0,
0,
0,
0,
0,
0,
0,
0,
0,
0,
0,
0,
0,
0,
0,
1,
0,
1,
0,
0,
0,
1,
0,
1,
0,
0,
0,
1,
1,
1,
0,
0,
0,
0,
0,
0,
1,
0,
0,
0,
0,
0,
0,
0,
0,
0,
0;

Schedule:Day:List, 10009 , Any number, No, 
10,
0,
0,
0,
0,
0,
0,
0,
0,
0,
0,
0,
0,
0,
0,
0,
0,
0,
0,
0,
0,
0,
0,
0,
0,
0,
0,
0,
0,
0,
0,
0,
0,
0,
0,
0,
0,
0,
0,
0,
0,
0,
0,
0,
0,
0,
0,
0,
0,
0,
0,
0,
0,
0,
0,
0,
0,
0,
0,
0,
0,
0,
0,
0,
.5,
0,
0,
0,
0,
0,
0,
0,
0,
0,
0,
0,
0,
0,
0,
0,
0,
0,
0,
0,
0,
0,
0,
0,
0,
0,
0,
0,
0,
0,
0,
0,
0,
0,
0,
0,
0,
0,
0,
0,
0,
0,
0,
0,
0,
0,
0,
0,
0,
0,
0,
0,
0,
0,
0,
0,
0,
0,
0,
0,
0,
0,
0,
0,
0,
0,
0,
0,
0,
0,
0,
0,
0,
0,
0,
0,
0,
0,
0,
0,
0;

Schedule:Day:List, 10010 , Any number, No, 
10,
0,
0,
0,
0,
0,
0,
0,
0,
0,
0,
0,
0,
0,
0,
0,
0,
0,
0,
0,
0,
0,
0,
0,
0,
0,
0,
0,
0,
0,
0,
0,
0,
0,
0,
0,
0,
0,
0,
0,
0,
0,
0,
0,
0,
0,
0,
0,
0,
0,
0,
0,
0,
0,
0,
0,
0,
0,
0,
0,
0,
0,
0,
1,
0,
0,
0,
0,
0,
0,
0,
0,
0,
0,
0,
0,
0,
0,
0,
0,
0,
0,
0,
0,
0,
0,
0,
0,
0,
0,
0,
0,
0,
0,
0,
0,
0,
0,
0,
0,
0,
0,
0,
0,
0,
0,
0,
0,
0,
0,
0,
0,
0,
0,
0,
0,
0,
0,
0,
0,
0,
0,
0,
0,
0,
0,
0,
0,
0,
0,
0,
0,
0,
0,
0,
0,
0,
0,
0,
0,
0,
0,
0,
0,
0;

Schedule:Day:List, 10011 , Any number, No, 
15,
0,
0,
0,
0,
0,
0,
0,
0,
0,
0,
0,
0,
0,
0,
0,
0,
0,
0,
0,
0,
0,
0,
0,
0,
0,
0,
0,
0,
0,
0,
0,
0,
0,
0,
0,
0,
0,
0,
0,
0,
0,
0,
0,
0,
0,
0,
0,
0,
0,
1,
1,
1,
0,
0,
0,
0,
0,
0,
0,
0,
0,
0,
0,
0,
0,
0,
0,
0,
0,
0,
0,
0,
0,
0,
0,
0,
0,
0,
0,
0,
0,
0,
0,
0,
0,
0,
0,
0,
0,
0,
0,
0,
0,
0,
0,
0;

Schedule:Day:List, 10013 , Any number, No, 
30,
0,
0,
0,
0,
0,
0,
0,
0,
0,
0,
0,
0,
0,
0,
0,
0,
0,
0,
0,
0,
0,
0,
0,
0,
0,
1,
1,
0,
0,
0,
0,
0,
0,
0,
0,
0,
0,
0,
0,
0,
0,
1,
0,
1,
0,
0,
0,
0;

Schedule:Day:List, 10014 , Any number, No, 
30,
0,
0,
0,
0,
0,
0,
0,
0,
0,
0,
0,
0,
0,
0,
0,
0,
0,
0,
0,
0,
0,
0,
0,
0,
0,
1,
1,
0,
0,
0,
0,
0,
0,
0,
1,
0,
0,
0,
0,
1,
1,
0,
0,
1,
1,
0,
0,
0;

Schedule:Day:List, 10015 , Any number, No, 
60,
1,
1,
1,
1,
1,
1,
0,
0,
0,
0,
0,
0,
0,
0,
0,
0,
0,
0,
1,
1,
1,
1,
1,
1;

Schedule:Day:List, 10016 , Any number, No, 
15,
0,
0,
0,
0,
0,
0,
0,
0,
0,
0,
0,
0,
0,
0,
0,
0,
0,
0,
0,
0,
0,
0,
0,
0,
0,
0,
0,
0,
0,
0,
0,
0,
0,
0,
0,
0,
0,
0,
0,
0,
0,
0,
0,
0,
0,
0,
0,
0,
0,
0,
0,
0,
0,
0,
0,
0,
0,
0,
0,
0,
0,
0,
.5,
.5,
.5,
.5,
.5,
.5,
.5,
.5,
.5,
.5,
.5,
.5,
.5,
.5,
.5,
.5,
1,
1,
1,
1,
1,
1,
1,
1,
0,
0,
0,
0,
0,
0,
0,
0,
0,
0;

Schedule:Day:List, 10017 , Any number, No, 
10,
0,
0,
0,
0,
0,
0,
0,
0,
0,
0,
0,
0,
0,
0,
0,
0,
0,
0,
0,
0,
0,
0,
0,
0,
0,
0,
0,
0,
0,
0,
0,
0,
0,
0,
0,
0,
0,
0,
0,
0,
0,
0,
0,
0,
0,
0,
0,
0,
0,
0,
0,
0,
0,
0,
0,
0,
0,
0,
0,
0,
0,
0,
0,
0,
0,
0,
0,
0,
0,
0,
0,
0,
0,
0,
0,
0,
0,
0,
0,
0,
0,
0,
0,
0,
0,
0,
0,
0,
0,
0,
0,
0,
0,
0,
0,
0,
0,
0,
0,
0,
0,
0,
0,
0,
0,
0,
0,
0,
0,
0,
0,
1,
1,
1,
0,
0,
1,
0,
0,
0,
1,
0,
0,
0,
0,
0,
0,
0,
0,
0,
0,
0,
0,
0,
0,
0,
0,
0,
0,
0,
0,
0,
0,
0;

Schedule:Day:List, 10018 , Any number, No, 
10,
0,
0,
0,
0,
0,
0,
0,
0,
0,
0,
0,
0,
0,
0,
0,
0,
0,
0,
0,
0,
0,
0,
0,
0,
0,
0,
0,
0,
0,
0,
0,
0,
0,
0,
0,
0,
0,
0,
0,
0,
0,
0,
0,
0,
0,
0,
0,
0,
0,
0,
0,
0,
0,
0,
0,
0,
0,
0,
0,
0,
0,
0,
0,
0,
0,
0,
0,
0,
0,
0,
0,
0,
0,
0,
0,
0,
0,
0,
0,
0,
0,
0,
0,
0,
0,
0,
0,
0,
0,
0,
0,
0,
0,
0,
0,
0,
0,
0,
0,
0,
1,
1,
1,
1,
1,
1,
1,
1,
1,
1,
1,
1,
1,
1,
1,
1,
1,
1,
1,
1,
1,
1,
1,
1,
1,
1,
1,
1,
1,
1,
1,
1,
1,
1,
1,
0,
0,
0,
0,
0,
0,
0,
0,
0;

Schedule:Day:List, 10020 , Any number, No, 
10,
0,
0,
0,
0,
0,
0,
0,
0,
0,
0,
0,
0,
0,
0,
0,
0,
0,
0,
0,
0,
0,
0,
0,
0,
0,
0,
0,
0,
0,
0,
0,
0,
0,
0,
0,
1,
1,
0,
0,
0,
0,
0,
0,
0,
0,
0,
0,
0,
0,
0,
0,
0,
0,
0,
0,
0,
0,
0,
0,
0,
0,
0,
0,
0,
0,
1,
1,
0,
0,
0,
0,
0,
0,
0,
0,
0,
0,
0,
0,
0,
0,
0,
0,
0,
0,
1,
0,
0,
0,
0,
0,
0,
0,
0,
0,
1,
0,
0,
0,
0,
0,
0,
0,
0,
1,
0,
1,
0,
0,
0,
0,
0,
0,
0,
1,
1,
0,
0,
0,
0,
0,
0,
0,
0,
0,
1,
0,
1,
0,
0,
0,
0,
0,
0,
1,
1,
0,
0,
0,
0,
0,
0,
0,
0;

Schedule:Day:List, 10021 , Any number, No, 
30,
0,
0,
0,
0,
0,
0,
0,
0,
0,
0,
0,
1,
1,
1,
1,
0,
0,
0,
1,
0,
0,
0,
0,
0,
0,
1,
1,
0,
0,
0,
0,
0,
0,
0,
0,
0,
0,
1,
1,
1,
0,
0,
0,
0,
0,
0,
0,
0;

Schedule:Day:List, 10022 , Any number, No, 
30,
0,
0,
0,
0,
0,
0,
0,
0,
0,
0,
0,
0,
0,
0,
0,
0,
0,
1,
1,
0,
0,
0,
0,
0,
0,
1,
1,
0,
0,
0,
0,
0,
0,
0,
0,
0,
0,
1,
0,
1,
1,
0,
0,
0,
0,
0,
0,
0;

Schedule:Day:List, 10027 , Any number, No, 
15,
0,
0,
0,
0,
0,
0,
0,
0,
0,
0,
0,
0,
0,
0,
0,
0,
0,
0,
0,
0,
0,
0,
0,
0,
0,
0,
0,
0,
0,
1,
1,
1,
1,
0,
0,
0,
0,
0,
0,
0,
0,
0,
0,
1,
1,
1,
1,
1,
1,
1,
1,
1,
1,
1,
0,
0,
0,
0,
0,
0,
0,
0,
0,
0,
0,
0,
0,
0,
0,
0,
0,
1,
1,
1,
1,
1,
1,
0,
0,
0,
0,
0,
0,
0,
0,
0,
0,
0,
0,
0,
0,
0,
0,
0,
0,
0;

Schedule:Day:List, 10028 , Any number, No, 
60,
.8,
.8,
.8,
.8,
.8,
.8,
.8,
.8,
.8,
.8,
.8,
.8,
.8,
.8,
.8,
.8,
.8,
.8,
.8,
.8,
.8,
.8,
.8,
.8;

Schedule:Day:Interval, 12_-50_15_22 , Any number, No, 
   24:00, 22;

Schedule:Day:Interval, 11_-50_15_22 , Any number, No, 
   24:00, -50;

Schedule:Day:Interval, 12_0_1_1 , Any number, No, 
   24:00, 1;

Schedule:Day:Interval, 11_0_1_1 , Any number, No, 
   24:00, 0;

Schedule:Day:Interval, 11_100_27_24 , Any number, No, 
   24:00, 100;

Schedule:Day:Interval, 12_100_27_24 , Any number, No, 
   24:00, 24;

Schedule:Day:List, 10038_100_27_24 , Any number, No, 
60,
24,
24,
24,
24,
24,
100,
100,
100,
100,
100,
24,
24,
24,
24,
24,
24,
24,
100,
100,
24,
24,
24,
24,
24;

Schedule:Day:List, 10038_0_1_1 , Any number, No, 
60,
1,
1,
1,
1,
1,
0,
0,
0,
0,
0,
1,
1,
1,
1,
1,
1,
1,
0,
0,
1,
1,
1,
1,
1;

Schedule:Day:List, 10037_100_27_24 , Any number, No, 
60,
24,
24,
24,
24,
24,
24,
24,
100,
100,
100,
100,
100,
100,
100,
100,
100,
100,
100,
100,
24,
24,
24,
24,
24;

Schedule:Day:List, 10037_0_1_1 , Any number, No, 
60,
1,
1,
1,
1,
1,
1,
1,
0,
0,
0,
0,
0,
0,
0,
0,
0,
0,
0,
0,
1,
1,
1,
1,
1;

Schedule:Day:Interval, 12_-50_13_22 , Any number, No, 
   24:00, 22;

Schedule:Day:Interval, 11_-50_13_22 , Any number, No, 
   24:00, -50;
Schedule:Compact, 
On 24/7, 
Any Number,
Through: 12/31,
For: AllDays,   
Until: 24:00,   1 ;

Schedule:Compact,
Off 24/7,
Any Number,
Through: 12/31,
For: AllDays,
Until: 24:00,  0  ;

Schedule:Week:Daily, bathroom_Jan,
10000,
11,
10000,
11,
10000,
10001,
11,
10000,
11,
11,
11,
11;

Schedule:Week:Daily, bathroom_Feb,
10000,
11,
10000,
11,
10000,
10001,
11,
10000,
11,
11,
11,
11;

Schedule:Week:Daily, bathroom_Mar,
10000,
11,
10000,
11,
10000,
10001,
11,
10000,
11,
11,
11,
11;

Schedule:Week:Daily, bathroom_Apr,
10000,
11,
10000,
11,
10000,
10001,
11,
10000,
11,
11,
11,
11;

Schedule:Week:Daily, bathroom_May,
10000,
11,
10000,
11,
10000,
10001,
11,
10000,
11,
11,
11,
11;

Schedule:Week:Daily, bathroom_Jun,
10000,
11,
10000,
11,
10000,
10001,
11,
10000,
11,
11,
11,
11;

Schedule:Week:Daily, bathroom_Jul,
10000,
11,
10000,
11,
10000,
10001,
11,
10000,
11,
11,
11,
11;

Schedule:Week:Daily, bathroom_Aug,
10000,
11,
10000,
11,
10000,
10001,
11,
10000,
11,
11,
11,
11;

Schedule:Week:Daily, bathroom_Sep,
10000,
11,
10000,
11,
10000,
10001,
11,
10000,
11,
11,
11,
11;

Schedule:Week:Daily, bathroom_Oct,
10000,
11,
10000,
11,
10000,
10001,
11,
10000,
11,
11,
11,
11;

Schedule:Week:Daily, bathroom_Nov,
10000,
11,
10000,
11,
10000,
10001,
11,
10000,
11,
11,
11,
11;

Schedule:Week:Daily, bathroom_Dec,
10000,
11,
10000,
11,
10000,
10001,
11,
10000,
11,
11,
11,
11;

Schedule:Week:Daily, bedroom_Jan,
10002,
10002,
10002,
10002,
10002,
10003,
10002,
10002,
10002,
11,
10002,
10002;

Schedule:Week:Daily, bedroom_Feb,
10002,
10002,
10002,
10002,
10002,
10003,
10002,
10002,
10002,
11,
10002,
10002;

Schedule:Week:Daily, bedroom_Mar,
10002,
10002,
10002,
10002,
10002,
10003,
10002,
10002,
10002,
11,
10002,
10002;

Schedule:Week:Daily, bedroom_Apr,
10002,
10002,
10002,
10002,
10002,
10003,
10002,
10002,
10002,
11,
10002,
10002;

Schedule:Week:Daily, bedroom_May,
10002,
10002,
10002,
10002,
10002,
10003,
10002,
10002,
10002,
11,
10002,
10002;

Schedule:Week:Daily, bedroom_Jun,
10002,
10002,
10002,
10002,
10002,
10003,
10002,
10002,
10002,
11,
10002,
10002;

Schedule:Week:Daily, bedroom_Jul,
10002,
10002,
10002,
10002,
10002,
10003,
10002,
10002,
10002,
11,
10002,
10002;

Schedule:Week:Daily, bedroom_Aug,
10002,
10002,
10002,
10002,
10002,
10003,
10002,
10002,
10002,
11,
10002,
10002;

Schedule:Week:Daily, bedroom_Sep,
10002,
10002,
10002,
10002,
10002,
10003,
10002,
10002,
10002,
11,
10002,
10002;

Schedule:Week:Daily, bedroom_Oct,
10002,
10002,
10002,
10002,
10002,
10003,
10002,
10002,
10002,
11,
10002,
10002;

Schedule:Week:Daily, bedroom_Nov,
10002,
10002,
10002,
10002,
10002,
10003,
10002,
10002,
10002,
11,
10002,
10002;

Schedule:Week:Daily, bedroom_Dec,
10002,
10002,
10002,
10002,
10002,
10003,
10002,
10002,
10002,
11,
10002,
10002;

Schedule:Week:Daily, kitchen_Jan,
10004,
10004,
10004,
10004,
10004,
10004,
10004,
10004,
10004,
11,
10004,
10004;

Schedule:Week:Daily, kitchen_Feb,
10004,
10004,
10004,
10004,
10004,
10004,
10004,
10004,
10004,
11,
10004,
10004;

Schedule:Week:Daily, kitchen_Mar,
10004,
10004,
10004,
10004,
10004,
10004,
10004,
10004,
10004,
11,
10004,
10004;

Schedule:Week:Daily, kitchen_Apr,
10004,
10004,
10004,
10004,
10004,
10004,
10004,
10004,
10004,
11,
10004,
10004;

Schedule:Week:Daily, kitchen_May,
10004,
10004,
10004,
10004,
10004,
10004,
10004,
10004,
10004,
11,
10004,
10004;

Schedule:Week:Daily, kitchen_Jun,
10004,
10004,
10004,
10004,
10004,
10004,
10004,
10004,
10004,
11,
10004,
10004;

Schedule:Week:Daily, kitchen_Jul,
10004,
10004,
10004,
10004,
10004,
10004,
10004,
10004,
10004,
11,
10004,
10004;

Schedule:Week:Daily, kitchen_Aug,
10004,
10004,
10004,
10004,
10004,
10004,
10004,
10004,
10004,
11,
10004,
10004;

Schedule:Week:Daily, kitchen_Sep,
10004,
10004,
10004,
10004,
10004,
10004,
10004,
10004,
10004,
11,
10004,
10004;

Schedule:Week:Daily, kitchen_Oct,
10004,
10004,
10004,
10004,
10004,
10004,
10004,
10004,
10004,
11,
10004,
10004;

Schedule:Week:Daily, kitchen_Nov,
10004,
10004,
10004,
10004,
10004,
10004,
10004,
10004,
10004,
11,
10004,
10004;

Schedule:Week:Daily, kitchen_Dec,
10004,
10004,
10004,
10004,
10004,
10004,
10004,
10004,
10004,
11,
10004,
10004;

Schedule:Week:Daily, livingroom_Jan,
10005,
10005,
10005,
10005,
10005,
10006,
10005,
10005,
10005,
11,
10005,
10005;

Schedule:Week:Daily, livingroom_Feb,
10005,
10005,
10005,
10005,
10005,
10006,
10005,
10005,
10005,
11,
10005,
10005;

Schedule:Week:Daily, livingroom_Mar,
10005,
10005,
10005,
10005,
10005,
10006,
10005,
10005,
10005,
11,
10005,
10005;

Schedule:Week:Daily, livingroom_Apr,
10005,
10005,
10005,
10005,
10005,
10006,
10005,
10005,
10005,
11,
10005,
10005;

Schedule:Week:Daily, livingroom_May,
10005,
10005,
10005,
10005,
10005,
10006,
10005,
10005,
10005,
11,
10005,
10005;

Schedule:Week:Daily, livingroom_Jun,
10005,
10005,
10005,
10005,
10005,
10006,
10005,
10005,
10005,
11,
10005,
10005;

Schedule:Week:Daily, livingroom_Jul,
10005,
10005,
10005,
10005,
10005,
10006,
10005,
10005,
10005,
11,
10005,
10005;

Schedule:Week:Daily, livingroom_Aug,
10005,
10005,
10005,
10005,
10005,
10006,
10005,
10005,
10005,
11,
10005,
10005;

Schedule:Week:Daily, livingroom_Sep,
10005,
10005,
10005,
10005,
10005,
10006,
10005,
10005,
10005,
11,
10005,
10005;

Schedule:Week:Daily, livingroom_Oct,
10005,
10005,
10005,
10005,
10005,
10006,
10005,
10005,
10005,
11,
10005,
10005;

Schedule:Week:Daily, livingroom_Nov,
10005,
10005,
10005,
10005,
10005,
10006,
10005,
10005,
10005,
11,
10005,
10005;

Schedule:Week:Daily, livingroom_Dec,
10005,
10005,
10005,
10005,
10005,
10006,
10005,
10005,
10005,
11,
10005,
10005;

Schedule:Week:Daily, jaroo_Jan,
11,
10009,
11,
11,
10009,
11,
11,
11,
11,
11,
11,
11;

Schedule:Week:Daily, jaroo_Feb,
11,
10009,
11,
11,
10009,
11,
11,
11,
11,
11,
11,
11;

Schedule:Week:Daily, jaroo_Mar,
11,
10009,
11,
11,
10009,
11,
11,
11,
11,
11,
11,
11;

Schedule:Week:Daily, jaroo_Apr,
11,
10009,
11,
11,
10009,
11,
11,
11,
11,
11,
11,
11;

Schedule:Week:Daily, jaroo_May,
11,
10009,
11,
11,
10009,
11,
11,
11,
11,
11,
11,
11;

Schedule:Week:Daily, jaroo_Jun,
11,
10009,
11,
11,
10009,
11,
11,
11,
11,
11,
11,
11;

Schedule:Week:Daily, jaroo_Jul,
11,
10009,
11,
11,
10009,
11,
11,
11,
11,
11,
11,
11;

Schedule:Week:Daily, jaroo_Aug,
11,
10009,
11,
11,
10009,
11,
11,
11,
11,
11,
11,
11;

Schedule:Week:Daily, jaroo_Sep,
11,
10009,
11,
11,
10009,
11,
11,
11,
11,
11,
11,
11;

Schedule:Week:Daily, jaroo_Oct,
11,
10009,
11,
11,
10009,
11,
11,
11,
11,
11,
11,
11;

Schedule:Week:Daily, jaroo_Nov,
11,
10009,
11,
11,
10009,
11,
11,
11,
11,
11,
11,
11;

Schedule:Week:Daily, jaroo_Dec,
11,
10009,
11,
11,
10009,
11,
11,
11,
11,
11,
11,
11;

Schedule:Week:Daily, otu/seshoar_Jan,
11,
10010,
11,
11,
10010,
10010,
11,
11,
11,
11,
11,
11;

Schedule:Week:Daily, otu/seshoar_Feb,
11,
10010,
11,
11,
10010,
10010,
11,
11,
11,
11,
11,
11;

Schedule:Week:Daily, otu/seshoar_Mar,
11,
10010,
11,
11,
10010,
10010,
11,
11,
11,
11,
11,
11;

Schedule:Week:Daily, otu/seshoar_Apr,
11,
10010,
11,
11,
10010,
10010,
11,
11,
11,
11,
11,
11;

Schedule:Week:Daily, otu/seshoar_May,
11,
10010,
11,
11,
10010,
10010,
11,
11,
11,
11,
11,
11;

Schedule:Week:Daily, otu/seshoar_Jun,
11,
10010,
11,
11,
10010,
10010,
11,
11,
11,
11,
11,
11;

Schedule:Week:Daily, otu/seshoar_Jul,
11,
10010,
11,
11,
10010,
10010,
11,
11,
11,
11,
11,
11;

Schedule:Week:Daily, otu/seshoar_Aug,
11,
10010,
11,
11,
10010,
10010,
11,
11,
11,
11,
11,
11;

Schedule:Week:Daily, otu/seshoar_Sep,
11,
10010,
11,
11,
10010,
10010,
11,
11,
11,
11,
11,
11;

Schedule:Week:Daily, otu/seshoar_Oct,
11,
10010,
11,
11,
10010,
10010,
11,
11,
11,
11,
11,
11;

Schedule:Week:Daily, otu/seshoar_Nov,
11,
10010,
11,
11,
10010,
10010,
11,
11,
11,
11,
11,
11;

Schedule:Week:Daily, otu/seshoar_Dec,
11,
10010,
11,
11,
10010,
10010,
11,
11,
11,
11,
11,
11;

Schedule:Week:Daily, washingmechin_Jan,
10011,
11,
11,
10011,
11,
10011,
11,
10011,
10011,
11,
10011,
10011;

Schedule:Week:Daily, washingmechin_Feb,
10011,
11,
11,
10011,
11,
10011,
11,
10011,
10011,
11,
10011,
10011;

Schedule:Week:Daily, washingmechin_Mar,
10011,
11,
11,
10011,
11,
10011,
11,
10011,
10011,
11,
10011,
10011;

Schedule:Week:Daily, washingmechin_Apr,
10011,
11,
11,
10011,
11,
10011,
11,
10011,
10011,
11,
10011,
10011;

Schedule:Week:Daily, washingmechin_May,
10011,
11,
11,
10011,
11,
10011,
11,
10011,
10011,
11,
10011,
10011;

Schedule:Week:Daily, washingmechin_Jun,
10011,
11,
11,
10011,
11,
10011,
11,
10011,
10011,
11,
10011,
10011;

Schedule:Week:Daily, washingmechin_Jul,
10011,
11,
11,
10011,
11,
10011,
11,
10011,
10011,
11,
10011,
10011;

Schedule:Week:Daily, washingmechin_Aug,
10011,
11,
11,
10011,
11,
10011,
11,
10011,
10011,
11,
10011,
10011;

Schedule:Week:Daily, washingmechin_Sep,
10011,
11,
11,
10011,
11,
10011,
11,
10011,
10011,
11,
10011,
10011;

Schedule:Week:Daily, washingmechin_Oct,
10011,
11,
11,
10011,
11,
10011,
11,
10011,
10011,
11,
10011,
10011;

Schedule:Week:Daily, washingmechin_Nov,
10011,
11,
11,
10011,
11,
10011,
11,
10011,
10011,
11,
10011,
10011;

Schedule:Week:Daily, washingmechin_Dec,
10011,
11,
11,
10011,
11,
10011,
11,
10011,
10011,
11,
10011,
10011;

Schedule:Week:Daily, yakhchal_Jan,
10028,
10028,
10028,
10028,
10028,
10028,
10028,
10028,
10028,
11,
10028,
10028;

Schedule:Week:Daily, yakhchal_Feb,
10028,
10028,
10028,
10028,
10028,
10028,
10028,
10028,
10028,
11,
10028,
10028;

Schedule:Week:Daily, yakhchal_Mar,
10028,
10028,
10028,
10028,
10028,
10028,
10028,
10028,
10028,
11,
10028,
10028;

Schedule:Week:Daily, yakhchal_Apr,
12,
12,
12,
12,
12,
12,
12,
12,
12,
11,
12,
12;

Schedule:Week:Daily, yakhchal_May,
12,
12,
12,
12,
12,
12,
12,
12,
12,
11,
12,
12;

Schedule:Week:Daily, yakhchal_Jun,
12,
12,
12,
12,
12,
12,
12,
12,
12,
11,
12,
12;

Schedule:Week:Daily, yakhchal_Jul,
12,
12,
12,
12,
12,
12,
12,
12,
12,
11,
12,
12;

Schedule:Week:Daily, yakhchal_Aug,
12,
12,
12,
12,
12,
12,
12,
12,
12,
11,
12,
12;

Schedule:Week:Daily, yakhchal_Sep,
12,
12,
12,
12,
12,
12,
12,
12,
12,
11,
12,
12;

Schedule:Week:Daily, yakhchal_Oct,
10028,
10028,
10028,
10028,
10028,
10028,
10028,
10028,
10028,
11,
10028,
10028;

Schedule:Week:Daily, yakhchal_Nov,
10028,
10028,
10028,
10028,
10028,
10028,
10028,
10028,
10028,
11,
10028,
10028;

Schedule:Week:Daily, yakhchal_Dec,
10028,
10028,
10028,
10028,
10028,
10028,
10028,
10028,
10028,
11,
10028,
10028;

Schedule:Week:Daily, television_Jan,
10013,
10013,
10013,
10013,
10013,
10014,
10013,
10013,
10013,
11,
10013,
10013;

Schedule:Week:Daily, television_Feb,
10013,
10013,
10013,
10013,
10013,
10014,
10013,
10013,
10013,
11,
10013,
10013;

Schedule:Week:Daily, television_Mar,
10013,
10013,
10013,
10013,
10013,
10014,
10013,
10013,
10013,
11,
10013,
10013;

Schedule:Week:Daily, television_Apr,
10013,
10013,
10013,
10013,
10013,
10014,
10013,
10013,
10013,
11,
10013,
10013;

Schedule:Week:Daily, television_May,
10013,
10013,
10013,
10013,
10013,
10014,
10013,
10013,
10013,
11,
10013,
10013;

Schedule:Week:Daily, television_Jun,
10013,
10013,
10013,
10013,
10013,
10014,
10013,
10013,
10013,
11,
10013,
10013;

Schedule:Week:Daily, television_Jul,
10013,
10013,
10013,
10013,
10013,
10014,
10013,
10013,
10013,
11,
10013,
10013;

Schedule:Week:Daily, television_Aug,
10013,
10013,
10013,
10013,
10013,
10014,
10013,
10013,
10013,
11,
10013,
10013;

Schedule:Week:Daily, television_Sep,
10013,
10013,
10013,
10013,
10013,
10014,
10013,
10013,
10013,
11,
10013,
10013;

Schedule:Week:Daily, television_Oct,
10013,
10013,
10013,
10013,
10013,
10014,
10013,
10013,
10013,
11,
10013,
10013;

Schedule:Week:Daily, television_Nov,
10013,
10013,
10013,
10013,
10013,
10014,
10013,
10013,
10013,
11,
10013,
10013;

Schedule:Week:Daily, television_Dec,
10013,
10013,
10013,
10013,
10013,
10014,
10013,
10013,
10013,
11,
10013,
10013;

Schedule:Week:Daily, window-kitchen_Jan,
12,
12,
12,
12,
12,
12,
12,
12,
12,
11,
12,
12;

Schedule:Week:Daily, window-kitchen_Feb,
12,
12,
12,
12,
12,
12,
12,
12,
12,
11,
12,
12;

Schedule:Week:Daily, window-kitchen_Mar,
10015,
10015,
10015,
10015,
10015,
10015,
10015,
10015,
10015,
11,
10015,
10015;

Schedule:Week:Daily, window-kitchen_Apr,
10015,
10015,
10015,
10015,
10015,
10015,
10015,
10015,
10015,
11,
10015,
10015;

Schedule:Week:Daily, window-kitchen_May,
10015,
10015,
10015,
10015,
10015,
10015,
10015,
10015,
10015,
11,
10015,
10015;

Schedule:Week:Daily, window-kitchen_Jun,
10015,
10015,
10015,
10015,
10015,
10015,
10015,
10015,
10015,
11,
10015,
10015;

Schedule:Week:Daily, window-kitchen_Jul,
10015,
10015,
10015,
10015,
10015,
10015,
10015,
10015,
10015,
11,
10015,
10015;

Schedule:Week:Daily, window-kitchen_Aug,
10015,
10015,
10015,
10015,
10015,
10015,
10015,
10015,
10015,
11,
10015,
10015;

Schedule:Week:Daily, window-kitchen_Sep,
10015,
10015,
10015,
10015,
10015,
10015,
10015,
10015,
10015,
11,
10015,
10015;

Schedule:Week:Daily, window-kitchen_Oct,
10015,
10015,
10015,
10015,
10015,
10015,
10015,
10015,
10015,
11,
10015,
10015;

Schedule:Week:Daily, window-kitchen_Nov,
12,
12,
12,
12,
12,
12,
12,
12,
12,
11,
12,
12;

Schedule:Week:Daily, window-kitchen_Dec,
12,
12,
12,
12,
12,
12,
12,
12,
12,
11,
12,
12;

Schedule:Week:Daily, lighting-kitchen_Jan,
10016,
10016,
10016,
10016,
10016,
10016,
10016,
10016,
10016,
11,
10016,
10016;

Schedule:Week:Daily, lighting-kitchen_Feb,
10016,
10016,
10016,
10016,
10016,
10016,
10016,
10016,
10016,
11,
10016,
10016;

Schedule:Week:Daily, lighting-kitchen_Mar,
10016,
10016,
10016,
10016,
10016,
10016,
10016,
10016,
10016,
11,
10016,
10016;

Schedule:Week:Daily, lighting-kitchen_Apr,
10016,
10016,
10016,
10016,
10016,
10016,
10016,
10016,
10016,
11,
10016,
10016;

Schedule:Week:Daily, lighting-kitchen_May,
10016,
10016,
10016,
10016,
10016,
10016,
10016,
10016,
10016,
11,
10016,
10016;

Schedule:Week:Daily, lighting-kitchen_Jun,
10016,
10016,
10016,
10016,
10016,
10016,
10016,
10016,
10016,
11,
10016,
10016;

Schedule:Week:Daily, lighting-kitchen_Jul,
10016,
10016,
10016,
10016,
10016,
10016,
10016,
10016,
10016,
11,
10016,
10016;

Schedule:Week:Daily, lighting-kitchen_Aug,
10016,
10016,
10016,
10016,
10016,
10016,
10016,
10016,
10016,
11,
10016,
10016;

Schedule:Week:Daily, lighting-kitchen_Sep,
10016,
10016,
10016,
10016,
10016,
10016,
10016,
10016,
10016,
11,
10016,
10016;

Schedule:Week:Daily, lighting-kitchen_Oct,
10016,
10016,
10016,
10016,
10016,
10016,
10016,
10016,
10016,
11,
10016,
10016;

Schedule:Week:Daily, lighting-kitchen_Nov,
10016,
10016,
10016,
10016,
10016,
10016,
10016,
10016,
10016,